PowerFlow/Se Sorriso Rural2/777230/777230.dss


! ===== NOME_SUB =====
!coord_(-12.582191, -55.707683)_nome_SE SORRISO RURAL II 69 KV_ctmt_777230_cod_205 


! ===== SLACK =====
New Object = Circuit.777230 basekv = 34.5 pu = 1.0 angle = 0 
New line.205_777230_ phases = 3 bus1 = SourceBus.1.2.3 bus2 = 279116514.1.2.3 switch = y

 


! ===== LINECODES =====
New linecode.16512355M-3 nphases=3 BaseFreq=60  r1=0.00136900 x1=0.00026000 c1=0.00000001  Normamps=80.0 Emergamps=112.0

 
New linecode.107719291M-3N nphases=3 BaseFreq=60  r1=0.00028900 x1=0.00027100 c1=0.00000001  Normamps=229.0 Emergamps=321.0

 
New linecode.16512345M-1N nphases=3 BaseFreq=60  r1=0.00351400 x1=0.00011000 c1=0.00000001  Normamps=55.0 Emergamps=77.0

 
New linecode.107719289M-3P nphases=3 BaseFreq=60  r1=0.00099100 x1=0.00031500 c1=0.00000001  Normamps=100.0 Emergamps=140.0

 
New linecode.5281626M-3P nphases=3 BaseFreq=60  r1=0.00351500 x1=0.00009700 c1=0.00000001  Normamps=46.0 Emergamps=46.0

 
New linecode.16512346M-3P nphases=3 BaseFreq=60  r1=0.00351400 x1=0.00011000 c1=0.00000001  Normamps=44.0 Emergamps=62.0

 
New linecode.16512352M-3P nphases=3 BaseFreq=60  r1=0.00217900 x1=0.00018600 c1=0.00000001  Normamps=59.0 Emergamps=83.0

 
New linecode.16512355M-3P nphases=3 BaseFreq=60  r1=0.00136900 x1=0.00026000 c1=0.00000001  Normamps=80.0 Emergamps=112.0

 
New linecode.16512345M-3P nphases=3 BaseFreq=60  r1=0.00351400 x1=0.00011000 c1=0.00000001  Normamps=55.0 Emergamps=77.0

 
New linecode.16512332H-3P nphases=3 BaseFreq=60  r1=0.00155100 x1=0.00035600 c1=0.00000001  Normamps=130.0 Emergamps=182.0

 
New linecode.16512376H-3 nphases=3 BaseFreq=60  r1=0.00019500 x1=0.00029100 c1=0.00000001  Normamps=495.0 Emergamps=693.0

 
New linecode.16512329H-1P nphases=3 BaseFreq=60  r1=0.00097500 x1=0.00034700 c1=0.00000001  Normamps=175.0 Emergamps=245.0

 
New linecode.549714H-3 nphases=3 BaseFreq=60  r1=0.00018800 x1=0.00038000 c1=0.00000001  Normamps=525.0 Emergamps=735.0

 
New linecode.16512329H-3 nphases=3 BaseFreq=60  r1=0.00097500 x1=0.00034700 c1=0.00000001  Normamps=175.0 Emergamps=245.0

 
New linecode.16512380H-3 nphases=3 BaseFreq=60  r1=0.00061300 x1=0.00033000 c1=0.00000001  Normamps=230.0 Emergamps=322.0

 
New linecode.16512375H-3 nphases=3 BaseFreq=60  r1=0.00019500 x1=0.00029100 c1=0.00000001  Normamps=495.0 Emergamps=693.0

 
New linecode.16512329H-3P nphases=3 BaseFreq=60  r1=0.00097500 x1=0.00034700 c1=0.00000001  Normamps=175.0 Emergamps=245.0

 
New linecode.16512384H-3 nphases=3 BaseFreq=60  r1=0.00030600 x1=0.00028900 c1=0.00000001  Normamps=350.0 Emergamps=490.0

 
New linecode.16512329H-1 nphases=3 BaseFreq=60  r1=0.00097500 x1=0.00034700 c1=0.00000001  Normamps=175.0 Emergamps=245.0

 
New linecode.16512329H-1 nphases=3 BaseFreq=60  r1=0.00097500 x1=0.00034700 c1=0.00000001  Normamps=175.0 Emergamps=245.0

 
New linecode.16512329H-1 nphases=3 BaseFreq=60  r1=0.00097500 x1=0.00034700 c1=0.00000001  Normamps=175.0 Emergamps=245.0

 
New linecode.16512332H-1 nphases=3 BaseFreq=60  r1=0.00155100 x1=0.00035600 c1=0.00000001  Normamps=130.0 Emergamps=182.0

 
New linecode.16512332H-1 nphases=3 BaseFreq=60  r1=0.00155100 x1=0.00035600 c1=0.00000001  Normamps=130.0 Emergamps=182.0

 
New linecode.5281628C-3 nphases=3 BaseFreq=60  r1=0.00024700 x1=0.00025900 c1=0.00000001  Normamps=291.0 Emergamps=291.0

 
New linecode.45225708H-1 nphases=3 BaseFreq=60  r1=0.00228700 x1=0.00018600 c1=0.00000001  Normamps=71.0 Emergamps=99.0

 
New linecode.45225708H-1 nphases=3 BaseFreq=60  r1=0.00228700 x1=0.00018600 c1=0.00000001  Normamps=71.0 Emergamps=99.0

 
New linecode.45225708H-1 nphases=3 BaseFreq=60  r1=0.00228700 x1=0.00018600 c1=0.00000001  Normamps=71.0 Emergamps=99.0

 
New linecode.16512332H-3 nphases=3 BaseFreq=60  r1=0.00155100 x1=0.00035600 c1=0.00000001  Normamps=130.0 Emergamps=182.0

 
New linecode.16512329H-2 nphases=3 BaseFreq=60  r1=0.00097500 x1=0.00034700 c1=0.00000001  Normamps=175.0 Emergamps=245.0

 
New linecode.16512335H-1 nphases=3 BaseFreq=60  r1=0.00246900 x1=0.00018600 c1=0.00000001  Normamps=95.0 Emergamps=133.0

 
New linecode.16512335H-1 nphases=3 BaseFreq=60  r1=0.00246900 x1=0.00018600 c1=0.00000001  Normamps=95.0 Emergamps=133.0

 


! ===== LINHAS =====
New Line.13475839 Phases=3 Bus1=66007816859876541MT.1.2.3 Bus2=66009302859881589MT.1.2.3 Linecode=16512329H-3P Length=52.622 units=m

New Line.13475840 Phases=3 Bus1=66209309859735557MT.1.2.3 Bus2=66199577859736727MT.1.2.3 Linecode=16512329H-3P Length=94.29 units=m

New Line.13475841 Phases=3 Bus1=66111609859746921MT.1.2.3 Bus2=66106152859755737MT.1.2.3 Linecode=16512329H-3P Length=100.429 units=m

New Line.13478579 Phases=3 Bus1=64218060860840302MT.1.2.3 Bus2=64223078860837083MT.1.2.3 Linecode=16512375H-3 Length=59.617 units=m

New Line.13478580 Phases=3 Bus1=64223078860837083MT.1.2.3 Bus2=64228225860833939MT.1.2.3 Linecode=16512375H-3 Length=60.313 units=m

New Line.13478581 Phases=3 Bus1=64277679860801938MT.1.2.3 Bus2=64283872860797746MT.1.2.3 Linecode=16512375H-3 Length=74.784 units=m

New Line.13478582 Phases=3 Bus1=64283872860797746MT.1.2.3 Bus2=64288490860794853MT.1.2.3 Linecode=16512375H-3 Length=54.493 units=m

New Line.12470932 Phases=3 Bus1=65861811859337261MT.1.2.3 Bus2=65863108859334421MT.1.2.3 Linecode=16512384H-3 Length=31.221 units=m

New Line.18094503 Phases=3 Bus1=66716686856943665MT.1.2.3 Bus2=66724761856931875MT.1.2.3 Linecode=16512384H-3 Length=142.902 units=m

New Line.18094504 Phases=3 Bus1=66709128856955021MT.1.2.3 Bus2=66716686856943665MT.1.2.3 Linecode=16512384H-3 Length=136.412 units=m

New Line.18094505 Phases=3 Bus1=66701276856967116MT.1.2.3 Bus2=66709128856955021MT.1.2.3 Linecode=16512384H-3 Length=144.202 units=m

New Line.18094506 Phases=3 Bus1=66693414856978926MT.1.2.3 Bus2=66701276856967116MT.1.2.3 Linecode=16512384H-3 Length=141.876 units=m

New Line.18094507 Phases=3 Bus1=66685665856990137MT.1.2.3 Bus2=66693414856978926MT.1.2.3 Linecode=16512384H-3 Length=134.692 units=m

New Line.18094508 Phases=3 Bus1=66787753856838113MT.1.2.3 Bus2=66795938856826537MT.1.2.3 Linecode=16512384H-3 Length=141.774 units=m

New Line.18094509 Phases=3 Bus1=66678082857001510MT.1.2.3 Bus2=66685665856990137MT.1.2.3 Linecode=16512384H-3 Length=136.692 units=m

New Line.18094510 Phases=3 Bus1=66668122857016308MT.1.2.3 Bus2=66678082857001510MT.1.2.3 Linecode=16512384H-3 Length=178.377 units=m

New Line.18094511 Phases=3 Bus1=66658512857030703MT.1.2.3 Bus2=66668122857016308MT.1.2.3 Linecode=16512384H-3 Length=173.08 units=m

New Line.18094484 Phases=3 Bus1=68112914857059100MT.1.2.3 Bus2=68126406857058846MT.1.2.3 Linecode=16512329H-1 Length=134.944 units=m

New Line.18094486 Phases=3 Bus1=67818723857063086MT.1.2.3 Bus2=67830266857063288MT.1.2.3 Linecode=16512329H-1 Length=115.448 units=m

New Line.18094487 Phases=3 Bus1=67830266857063288MT.1.2.3 Bus2=67842490857063026MT.1.2.3 Linecode=16512329H-1 Length=122.268 units=m

New Line.18094488 Phases=3 Bus1=67842490857063026MT.1.2.3 Bus2=67853016857063214MT.1.2.3 Linecode=16512329H-1 Length=105.277 units=m

New Line.18094489 Phases=3 Bus1=67853016857063214MT.1.2.3 Bus2=67864448857063050MT.1.2.3 Linecode=16512329H-1 Length=114.332 units=m

New Line.18095112 Phases=3 Bus1=65954353859139608MT.1.2.3 Bus2=65961469859124335MT.1.2.3 Linecode=16512384H-3 Length=168.494 units=m

New Line.18095113 Phases=3 Bus1=65946933859154800MT.1.2.3 Bus2=65954353859139608MT.1.2.3 Linecode=16512384H-3 Length=169.072 units=m

New Line.18095114 Phases=3 Bus1=65939553859170909MT.1.2.3 Bus2=65946933859154800MT.1.2.3 Linecode=16512384H-3 Length=177.19 units=m

New Line.18095417 Phases=3 Bus1=67103908859268005MT.1.2.3 Bus2=67115960859273519MT.1.2.3 Linecode=16512329H-3 Length=132.535 units=m

New Line.18095418 Phases=3 Bus1=67115960859273519MT.1.2.3 Bus2=67127668859278997MT.1.2.3 Linecode=16512329H-3 Length=129.262 units=m

New Line.18095419 Phases=3 Bus1=67127668859278997MT.1.2.3 Bus2=67139623859284414MT.1.2.3 Linecode=16512329H-3 Length=131.25 units=m

New Line.18095420 Phases=3 Bus1=67139623859284414MT.1.2.3 Bus2=67152174859290575MT.1.2.3 Linecode=16512329H-3 Length=136.113 units=m

New Line.18095421 Phases=3 Bus1=67152174859290575MT.1.2.3 Bus2=67164223859295665MT.1.2.3 Linecode=16512329H-3 Length=130.8 units=m

New Line.18095422 Phases=3 Bus1=67152105859290708MT.1.2.3 Bus2=67146239859302062MT.1.2.3 Linecode=16512329H-3 Length=129.296 units=m

New Line.18095416 Phases=3 Bus1=67092129859262693MT.1.2.3 Bus2=67103908859268005MT.1.2.3 Linecode=16512329H-3 Length=129.214 units=m

New Line.82509309 Phases=3 Bus1=66750670859705135MT.1.2.3 Bus2=66754401859701577MT.1.2.3 Linecode=16512329H-3 Length=51.556 units=m

New Line.82509320 Phases=3 Bus1=66754277859701488MT.1.2.3 Bus2=66748669859697471MT.1.2.3 Linecode=16512329H-3 Length=70.509 units=m

New Line.18097300 Phases=3 Bus1=67798817856715011MT.1.2.3 Bus2=67801382856727985MT.1.2.3 Linecode=45225708H-1 Length=132.251 units=m

New Line.18097301 Phases=3 Bus1=67801382856727985MT.1.2.3 Bus2=67805601856739849MT.1.2.3 Linecode=45225708H-1 Length=125.918 units=m

New Line.18097302 Phases=3 Bus1=67805601856739849MT.1.2.3 Bus2=67810223856751578MT.1.2.3 Linecode=45225708H-1 Length=126.068 units=m

New Line.18092483 Phases=3 Bus1=67543580857758854MT.1.2.3 Bus2=67556595857763636MT.1.2.3 Linecode=16512329H-3 Length=138.657 units=m

New Line.18092484 Phases=3 Bus1=67556595857763636MT.1.2.3 Bus2=67567330857768026MT.1.2.3 Linecode=16512329H-3 Length=115.979 units=m

New Line.18100434 Phases=3 Bus1=66099302858831363MT.1.2.3 Bus2=66105904858821456MT.1.2.3 Linecode=16512384H-3 Length=119.053 units=m

New Line.18100435 Phases=3 Bus1=66095598858837919MT.1.2.3 Bus2=66099302858831363MT.1.2.3 Linecode=16512384H-3 Length=75.3 units=m

New Line.18100436 Phases=3 Bus1=66093762858840671MT.1.2.3 Bus2=66095598858837919MT.1.2.3 Linecode=16512384H-3 Length=29.487 units=m

New Line.18100432 Phases=3 Bus1=66111194858804238MT.1.2.3 Bus2=66116137858788272MT.1.2.3 Linecode=16512384H-3 Length=167.137 units=m

New Line.18091551 Phases=3 Bus1=67864448857063050MT.1.2.3 Bus2=67876021857062811MT.1.2.3 Linecode=16512329H-1 Length=115.755 units=m

New Line.18091552 Phases=3 Bus1=67876021857062811MT.1.2.3 Bus2=67887435857062939MT.1.2.3 Linecode=16512329H-1 Length=114.147 units=m

New Line.18091553 Phases=3 Bus1=67887435857062939MT.1.2.3 Bus2=67899315857061879MT.1.2.3 Linecode=16512329H-1 Length=119.272 units=m

New Line.18091554 Phases=3 Bus1=67899315857061879MT.1.2.3 Bus2=67912930857062093MT.1.2.3 Linecode=16512329H-1 Length=136.167 units=m

New Line.18099493 Phases=3 Bus1=67029975859139961MT.1.2.3 Bus2=67036162859133415MT.1.2.3 Linecode=16512384H-3 Length=90.072 units=m

New Line.18099494 Phases=3 Bus1=67036162859133415MT.1.2.3 Bus2=67041773859127123MT.1.2.3 Linecode=16512384H-3 Length=84.305 units=m

New Line.18099497 Phases=3 Bus1=67353649859383225MT.1.2.3 Bus2=67364965859388212MT.1.2.3 Linecode=16512329H-3 Length=123.662 units=m

New Line.18099498 Phases=3 Bus1=67364965859388212MT.1.2.3 Bus2=67379993859396223MT.1.2.3 Linecode=16512329H-3 Length=170.299 units=m

New Line.18099499 Phases=3 Bus1=67400516859405878MT.1.2.3 Bus2=67411043859410607MT.1.2.3 Linecode=16512329H-3 Length=115.404 units=m

New Line.18099500 Phases=3 Bus1=67411043859410607MT.1.2.3 Bus2=67419986859414820MT.1.2.3 Linecode=16512329H-3 Length=98.857 units=m

New Line.18101788 Phases=3 Bus1=66191531857796439MT.1.2.3 Bus2=66180757857793369MT.1.2.3 Linecode=16512329H-3P Length=112.029 units=m

New Line.18101789 Phases=3 Bus1=66180757857793369MT.1.2.3 Bus2=66164433857789405MT.1.2.3 Linecode=16512329H-3P Length=164.294 units=m

New Line.18101790 Phases=3 Bus1=66164423857789255MT.1.2.3 Bus2=66163473857775361MT.1.2.3 Linecode=16512329H-1P Length=140.768 units=m

New Line.18101791 Phases=3 Bus1=66164433857789405MT.1.2.3 Bus2=66148862857786220MT.1.2.3 Linecode=16512329H-3P Length=158.934 units=m

New Line.18101792 Phases=3 Bus1=66148862857786220MT.1.2.3 Bus2=66133571857782544MT.1.2.3 Linecode=16512329H-3P Length=157.267 units=m

New Line.18102108 Phases=3 Bus1=67054723859414682MT.1.2.3 Bus2=67049945859410874MT.1.2.3 Linecode=16512329H-3 Length=59.224 units=m

New Line.18102109 Phases=3 Bus1=67164223859295665MT.1.2.3 Bus2=67176112859301087MT.1.2.3 Linecode=16512329H-3 Length=130.67 units=m

New Line.18102110 Phases=3 Bus1=67176112859301087MT.1.2.3 Bus2=67188349859307318MT.1.2.3 Linecode=16512329H-3 Length=137.321 units=m

New Line.18097299 Phases=3 Bus1=67794589856703854MT.1.2.3 Bus2=67798817856715011MT.1.2.3 Linecode=45225708H-1 Length=119.312 units=m

New Line.18097627 Phases=3 Bus1=67281460859350221MT.1.2.3 Bus2=67294213859356546MT.1.2.3 Linecode=16512329H-3 Length=138.623 units=m

New Line.18097628 Phases=3 Bus1=67294213859356546MT.1.2.3 Bus2=67306430859362316MT.1.2.3 Linecode=16512329H-3 Length=135.11 units=m

New Line.18097629 Phases=3 Bus1=67306430859362316MT.1.2.3 Bus2=67318173859367480MT.1.2.3 Linecode=16512329H-3 Length=128.283 units=m

New Line.18097296 Phases=3 Bus1=67774627856692843MT.1.2.3 Bus2=67784951856692871MT.1.2.3 Linecode=16512329H-1 Length=103.24 units=m

New Line.18097297 Phases=3 Bus1=67784951856692871MT.1.2.3 Bus2=67793808856693338MT.1.2.3 Linecode=16512329H-1 Length=88.693 units=m

New Line.18097298 Phases=3 Bus1=67793808856693338MT.1.2.3 Bus2=67794589856703854MT.1.2.3 Linecode=45225708H-1 Length=103.481 units=m

New Line.13097699 Phases=3 Bus1=65550374858975776MT.1.2.3 Bus2=65548271858966047MT.1.2.3 Linecode=16512329H-3 Length=97.439 units=m

New Line.13097700 Phases=3 Bus1=65548271858966047MT.1.2.3 Bus2=65545462858955649MT.1.2.3 Linecode=16512329H-3 Length=107.707 units=m

New Line.13097701 Phases=3 Bus1=65545462858955649MT.1.2.3 Bus2=65543801858945028MT.1.2.3 Linecode=16512329H-3 Length=107.501 units=m

New Line.13096774 Phases=3 Bus1=64153616860881294MT.1.2.3 Bus2=64159628860877351MT.1.2.3 Linecode=16512375H-3 Length=71.897 units=m

New Line.13096775 Phases=3 Bus1=64148459860884540MT.1.2.3 Bus2=64153616860881294MT.1.2.3 Linecode=16512375H-3 Length=60.935 units=m

New Line.13096776 Phases=3 Bus1=64143709860887807MT.1.2.3 Bus2=64148459860884540MT.1.2.3 Linecode=16512375H-3 Length=57.65 units=m

New Line.13096777 Phases=3 Bus1=64138472860890861MT.1.2.3 Bus2=64143709860887807MT.1.2.3 Linecode=16512375H-3 Length=60.624 units=m

New Line.13096778 Phases=3 Bus1=64133391860893824MT.1.2.3 Bus2=64138472860890861MT.1.2.3 Linecode=16512375H-3 Length=58.818 units=m

New Line.13096779 Phases=3 Bus1=64128153860897128MT.1.2.3 Bus2=64133391860893824MT.1.2.3 Linecode=16512375H-3 Length=61.93 units=m

New Line.13096780 Phases=3 Bus1=64123237860900916MT.1.2.3 Bus2=64128153860897128MT.1.2.3 Linecode=16512375H-3 Length=62.061 units=m

New Line.13096781 Phases=3 Bus1=64117791860904458MT.1.2.3 Bus2=64123237860900916MT.1.2.3 Linecode=16512375H-3 Length=64.965 units=m

New Line.13096782 Phases=3 Bus1=64112859860907635MT.1.2.3 Bus2=64117791860904458MT.1.2.3 Linecode=16512375H-3 Length=55.336 units=m

New Line.13096783 Phases=3 Bus1=64107952860910566MT.1.2.3 Bus2=64112859860907635MT.1.2.3 Linecode=16512375H-3 Length=57.157 units=m

New Line.13096784 Phases=3 Bus1=64102975860913739MT.1.2.3 Bus2=64107952860910566MT.1.2.3 Linecode=16512375H-3 Length=59.024 units=m

New Line.13096785 Phases=3 Bus1=64097888860917168MT.1.2.3 Bus2=64102975860913739MT.1.2.3 Linecode=16512375H-3 Length=61.348 units=m

New Line.13096786 Phases=3 Bus1=64092677860919997MT.1.2.3 Bus2=64097888860917168MT.1.2.3 Linecode=16512375H-3 Length=59.294 units=m

New Line.13096787 Phases=3 Bus1=64081869860926383MT.1.2.3 Bus2=64087255860923208MT.1.2.3 Linecode=16512375H-3 Length=60.682 units=m

New Line.13096788 Phases=3 Bus1=64087255860923208MT.1.2.3 Bus2=64092677860919997MT.1.2.3 Linecode=16512375H-3 Length=63.015 units=m

New Line.13096789 Phases=3 Bus1=64228225860833939MT.1.2.3 Bus2=64233347860831008MT.1.2.3 Linecode=16512375H-3 Length=59.013 units=m

New Line.13096773 Phases=3 Bus1=64159628860877351MT.1.2.3 Bus2=64163855860874415MT.1.2.3 Linecode=16512375H-3 Length=51.466 units=m

New Line.13096767 Phases=3 Bus1=64189175860858488MT.1.2.3 Bus2=64194253860855586MT.1.2.3 Linecode=16512375H-3 Length=58.487 units=m

New Line.13096768 Phases=3 Bus1=64184229860861520MT.1.2.3 Bus2=64189175860858488MT.1.2.3 Linecode=16512375H-3 Length=58.014 units=m

New Line.13096769 Phases=3 Bus1=64178611860865101MT.1.2.3 Bus2=64184229860861520MT.1.2.3 Linecode=16512375H-3 Length=66.622 units=m

New Line.13096770 Phases=3 Bus1=64173853860867939MT.1.2.3 Bus2=64178611860865101MT.1.2.3 Linecode=16512375H-3 Length=55.401 units=m

New Line.13096771 Phases=3 Bus1=64168708860871179MT.1.2.3 Bus2=64173853860867939MT.1.2.3 Linecode=16512375H-3 Length=60.802 units=m

New Line.13096772 Phases=3 Bus1=64163855860874415MT.1.2.3 Bus2=64168708860871179MT.1.2.3 Linecode=16512375H-3 Length=58.329 units=m

New Line.13097939 Phases=3 Bus1=65566052858869295MT.1.2.3 Bus2=65568192858861699MT.1.2.3 Linecode=16512329H-3 Length=78.917 units=m

New Line.13097940 Phases=3 Bus1=65568192858861699MT.1.2.3 Bus2=65572136858852445MT.1.2.3 Linecode=16512329H-3 Length=100.594 units=m

New Line.13097941 Phases=3 Bus1=65572136858852445MT.1.2.3 Bus2=65563442858851238MT.1.2.3 Linecode=16512329H-3 Length=84.956 units=m

New Line.13097942 Phases=3 Bus1=65563442858851238MT.1.2.3 Bus2=65554503858849643MT.1.2.3 Linecode=16512329H-3 Length=90.802 units=m

New Line.13097943 Phases=3 Bus1=65554503858849643MT.1.2.3 Bus2=65545593858847748MT.1.2.3 Linecode=16512329H-3 Length=91.093 units=m

New Line.13097944 Phases=3 Bus1=65529901858839953MT.1.2.3 Bus2=65526130858836017MT.1.2.3 Linecode=16512329H-3 Length=54.509 units=m

New Line.13097945 Phases=3 Bus1=65545593858847748MT.1.2.3 Bus2=65534700858845773MT.1.2.3 Linecode=16512329H-3 Length=110.706 units=m

New Line.13097946 Phases=3 Bus1=65534700858845773MT.1.2.3 Bus2=65529901858839953MT.1.2.3 Linecode=16512329H-3 Length=72.27 units=m

New Line.13097931 Phases=3 Bus1=65543801858945028MT.1.2.3 Bus2=65546374858935230MT.1.2.3 Linecode=16512329H-3 Length=98.685 units=m

New Line.13097932 Phases=3 Bus1=65546374858935230MT.1.2.3 Bus2=65549774858925394MT.1.2.3 Linecode=16512329H-3 Length=104.071 units=m

New Line.13097933 Phases=3 Bus1=65549774858925394MT.1.2.3 Bus2=65552779858915712MT.1.2.3 Linecode=16512329H-3 Length=101.376 units=m

New Line.13097934 Phases=3 Bus1=65552779858915712MT.1.2.3 Bus2=65554996858906089MT.1.2.3 Linecode=16512329H-3 Length=98.751 units=m

New Line.13097935 Phases=3 Bus1=65554996858906089MT.1.2.3 Bus2=65557862858896623MT.1.2.3 Linecode=16512329H-3 Length=98.904 units=m

New Line.13097936 Phases=3 Bus1=65557862858896623MT.1.2.3 Bus2=65560705858886900MT.1.2.3 Linecode=16512329H-3 Length=101.301 units=m

New Line.13097937 Phases=3 Bus1=65560705858886900MT.1.2.3 Bus2=65563530858877296MT.1.2.3 Linecode=16512329H-3 Length=100.109 units=m

New Line.13097938 Phases=3 Bus1=65563530858877296MT.1.2.3 Bus2=65566052858869295MT.1.2.3 Linecode=16512329H-3 Length=83.891 units=m

New Line.15244000 Phases=3 Bus1=68212645858417153MT.1.2.3 Bus2=68212550858418524MT.1.2.3 Linecode=16512329H-3P Length=11.936 units=m

New Line.18108625 Phases=3 Bus1=66209240858441866MT.1.2.3 Bus2=66213577858425376MT.1.2.3 Linecode=16512384H-3 Length=170.508 units=m

New Line.18108626 Phases=3 Bus1=66204704858458541MT.1.2.3 Bus2=66209240858441866MT.1.2.3 Linecode=16512384H-3 Length=172.809 units=m

New Line.18108627 Phases=3 Bus1=66200293858474938MT.1.2.3 Bus2=66204704858458541MT.1.2.3 Linecode=16512384H-3 Length=169.799 units=m

New Line.18108628 Phases=3 Bus1=66196081858491316MT.1.2.3 Bus2=66200293858474938MT.1.2.3 Linecode=16512384H-3 Length=169.109 units=m

New Line.13747637 Phases=3 Bus1=67781977857919421MT.1.2.3 Bus2=67776003857919142MT.1.2.3 Linecode=16512329H-3 Length=61.307 units=m

New Line.15167536 Phases=3 Bus1=69145882857095699MT.1.2.3 Bus2=69150009857092306MT.1.2.3 Linecode=16512329H-1 Length=53.427 units=m

New Line.14473421 Phases=3 Bus1=69097081858906560MT.1.2.3 Bus2=69092589858918926MT.1.2.3 Linecode=16512329H-1 Length=128.567 units=m

New Line.14473422 Phases=3 Bus1=69099125858896706MT.1.2.3 Bus2=69097081858906560MT.1.2.3 Linecode=16512329H-1 Length=100.638 units=m

New Line.14473423 Phases=3 Bus1=69100421858886317MT.1.2.3 Bus2=69099125858896706MT.1.2.3 Linecode=16512329H-1 Length=104.695 units=m

New Line.14473424 Phases=3 Bus1=69103687858865504MT.1.2.3 Bus2=69101124858875382MT.1.2.3 Linecode=16512329H-1 Length=103.55 units=m

New Line.14473425 Phases=3 Bus1=69101124858875382MT.1.2.3 Bus2=69100421858886317MT.1.2.3 Linecode=16512329H-1 Length=109.576 units=m

New Line.13107453 Phases=3 Bus1=65980813859371380MT.1.2.3 Bus2=65987342859372897MT.1.2.3 Linecode=16512384H-3 Length=67.029 units=m

New Line.13107454 Phases=3 Bus1=65987342859372897MT.1.2.3 Bus2=65993693859374603MT.1.2.3 Linecode=16512384H-3 Length=65.761 units=m

New Line.13107455 Phases=3 Bus1=65968003859368393MT.1.2.3 Bus2=65974962859369838MT.1.2.3 Linecode=16512384H-3 Length=71.074 units=m

New Line.13107456 Phases=3 Bus1=65974962859369838MT.1.2.3 Bus2=65980813859371380MT.1.2.3 Linecode=16512384H-3 Length=60.508 units=m

New Line.13107457 Phases=3 Bus1=65942282859362036MT.1.2.3 Bus2=65948523859363403MT.1.2.3 Linecode=16512384H-3 Length=63.89 units=m

New Line.13107458 Phases=3 Bus1=65948523859363403MT.1.2.3 Bus2=65955113859365195MT.1.2.3 Linecode=16512384H-3 Length=64.448 units=m

New Line.13107459 Phases=3 Bus1=65929506859358773MT.1.2.3 Bus2=65935727859359998MT.1.2.3 Linecode=16512384H-3 Length=63.405 units=m

New Line.13107460 Phases=3 Bus1=65935727859359998MT.1.2.3 Bus2=65942282859362036MT.1.2.3 Linecode=16512384H-3 Length=68.645 units=m

New Line.13107461 Phases=3 Bus1=65916268859355279MT.1.2.3 Bus2=65922595859356869MT.1.2.3 Linecode=16512384H-3 Length=65.237 units=m

New Line.13107462 Phases=3 Bus1=65922595859356869MT.1.2.3 Bus2=65929506859358773MT.1.2.3 Linecode=16512384H-3 Length=71.685 units=m

New Line.13107463 Phases=3 Bus1=65903715859352222MT.1.2.3 Bus2=65909590859353836MT.1.2.3 Linecode=16512384H-3 Length=60.927 units=m

New Line.13107464 Phases=3 Bus1=65909590859353836MT.1.2.3 Bus2=65916268859355279MT.1.2.3 Linecode=16512384H-3 Length=68.321 units=m

New Line.13107465 Phases=3 Bus1=65890511859348658MT.1.2.3 Bus2=65896517859350575MT.1.2.3 Linecode=16512384H-3 Length=63.045 units=m

New Line.13107466 Phases=3 Bus1=65896517859350575MT.1.2.3 Bus2=65903715859352222MT.1.2.3 Linecode=16512384H-3 Length=73.84 units=m

New Line.13107467 Phases=3 Bus1=65878201859345893MT.1.2.3 Bus2=65884463859347141MT.1.2.3 Linecode=16512384H-3 Length=63.852 units=m

New Line.13107468 Phases=3 Bus1=65884463859347141MT.1.2.3 Bus2=65890511859348658MT.1.2.3 Linecode=16512384H-3 Length=62.354 units=m

New Line.112288136 Phases=3 Bus1=65459080859975936MT.1.2.3 Bus2=65465535859966980MT.1.2.3 Linecode=16512384H-3 Length=110.398 units=m

New Line.18100840 Phases=3 Bus1=66229936858055267MT.1.2.3 Bus2=66236118858039903MT.1.2.3 Linecode=16512384H-3 Length=165.611 units=m

New Line.18100841 Phases=3 Bus1=66236118858039903MT.1.2.3 Bus2=66242114858024658MT.1.2.3 Linecode=16512384H-3 Length=163.818 units=m

New Line.18100842 Phases=3 Bus1=66242114858024658MT.1.2.3 Bus2=66248137858010470MT.1.2.3 Linecode=16512384H-3 Length=154.135 units=m

New Line.18100843 Phases=3 Bus1=66248137858010470MT.1.2.3 Bus2=66253162857995601MT.1.2.3 Linecode=16512384H-3 Length=156.952 units=m

New Line.18100844 Phases=3 Bus1=66253162857995601MT.1.2.3 Bus2=66259080857979740MT.1.2.3 Linecode=16512384H-3 Length=169.291 units=m

New Line.18100845 Phases=3 Bus1=66259080857979740MT.1.2.3 Bus2=66263766857966823MT.1.2.3 Linecode=16512384H-3 Length=137.407 units=m

New Line.18100839 Phases=3 Bus1=66224120858070877MT.1.2.3 Bus2=66229936858055267MT.1.2.3 Linecode=16512384H-3 Length=166.583 units=m

New Line.13362348 Phases=3 Bus1=67368842857693196MT.1.2.3 Bus2=67370549857687170MT.1.2.3 Linecode=16512384H-3 Length=58.988 units=m

New Line.13362349 Phases=3 Bus1=67240454857999892MT.1.2.3 Bus2=67243782857991642MT.1.2.3 Linecode=16512384H-3 Length=88.96 units=m

New Line.13362350 Phases=3 Bus1=67254417857967275MT.1.2.3 Bus2=67257917857958972MT.1.2.3 Linecode=16512384H-3 Length=90.105 units=m

New Line.13362351 Phases=3 Bus1=67260961857950530MT.1.2.3 Bus2=67264596857941968MT.1.2.3 Linecode=16512384H-3 Length=93.017 units=m

New Line.13362352 Phases=3 Bus1=67271588857925463MT.1.2.3 Bus2=67274702857917383MT.1.2.3 Linecode=16512384H-3 Length=86.593 units=m

New Line.13362353 Phases=3 Bus1=67327052857792778MT.1.2.3 Bus2=67329955857784158MT.1.2.3 Linecode=16512384H-3 Length=90.957 units=m

New Line.18165033 Phases=3 Bus1=67791297857835351MT.1.2.3 Bus2=67790462857845210MT.1.2.3 Linecode=16512329H-3 Length=98.943 units=m

New Line.15113737 Phases=3 Bus1=65343666860166132MT.1.2.3 Bus2=65343641860165973MT.1.2.3 Linecode=16512329H-3 Length=1.61 units=m

New Line.15113738 Phases=3 Bus1=66047846858590266MT.1.2.3 Bus2=66047813858590423MT.1.2.3 Linecode=16512329H-3 Length=1.604 units=m

New Line.15113739 Phases=3 Bus1=69103878858865314MT.1.2.3 Bus2=69103725858865359MT.1.2.3 Linecode=16512329H-1 Length=1.595 units=m

New Line.15113740 Phases=3 Bus1=65411877859705989MT.1.2.3 Bus2=65412005859706085MT.1.2.3 Linecode=16512329H-3 Length=1.6 units=m

New Line.15113748 Phases=3 Bus1=66675430858284507MT.1.2.3 Bus2=66675582858284559MT.1.2.3 Linecode=16512329H-1 Length=1.606 units=m

New Line.13402222 Phases=3 Bus1=68506834857524064MT.1.2.3 Bus2=68518875857526175MT.1.2.3 Linecode=16512329H-1 Length=122.246 units=m

New Line.13402223 Phases=3 Bus1=68755952857619048MT.1.2.3 Bus2=68747562857628209MT.1.2.3 Linecode=16512329H-1 Length=124.224 units=m

New Line.13402224 Phases=3 Bus1=68780088857573517MT.1.2.3 Bus2=68792750857576365MT.1.2.3 Linecode=16512329H-1 Length=129.783 units=m

New Line.13402225 Phases=3 Bus1=68721330857562899MT.1.2.3 Bus2=68733448857565111MT.1.2.3 Linecode=16512329H-1 Length=123.182 units=m

New Line.13402226 Phases=3 Bus1=68649699857550267MT.1.2.3 Bus2=68661887857552238MT.1.2.3 Linecode=16512329H-1 Length=123.463 units=m

New Line.13402227 Phases=3 Bus1=68593041857539367MT.1.2.3 Bus2=68605104857541543MT.1.2.3 Linecode=16512329H-1 Length=122.577 units=m

New Line.13402228 Phases=3 Bus1=68518875857526175MT.1.2.3 Bus2=68531033857528430MT.1.2.3 Linecode=16512329H-1 Length=123.654 units=m

New Line.13402229 Phases=3 Bus1=68498901857516711MT.1.2.3 Bus2=68497311857522518MT.1.2.3 Linecode=16512329H-1 Length=60.207 units=m

New Line.13402230 Phases=3 Bus1=68707216857674753MT.1.2.3 Bus2=68699568857682599MT.1.2.3 Linecode=16512329H-1 Length=109.568 units=m

New Line.13402231 Phases=3 Bus1=68739603857637474MT.1.2.3 Bus2=68731436857646955MT.1.2.3 Linecode=16512329H-1 Length=125.136 units=m

New Line.13402232 Phases=3 Bus1=68771924857600374MT.1.2.3 Bus2=68763180857609765MT.1.2.3 Linecode=16512329H-1 Length=128.315 units=m

New Line.13466625 Phases=3 Bus1=66815581859383100MT.1.2.3 Bus2=66821757859376011MT.1.2.3 Linecode=16512384H-3 Length=94.02 units=m

New Line.13466626 Phases=3 Bus1=66833431859362626MT.1.2.3 Bus2=66839195859355958MT.1.2.3 Linecode=16512384H-3 Length=88.14 units=m

New Line.13466627 Phases=3 Bus1=66850930859342658MT.1.2.3 Bus2=66856758859335664MT.1.2.3 Linecode=16512384H-3 Length=91.039 units=m

New Line.13466628 Phases=3 Bus1=66856758859335664MT.1.2.3 Bus2=66861628859330181MT.1.2.3 Linecode=16512384H-3 Length=69.657 units=m

New Line.13466629 Phases=3 Bus1=66866590859324436MT.1.2.3 Bus2=66872723859317647MT.1.2.3 Linecode=16512384H-3 Length=91.49 units=m

New Line.13466630 Phases=3 Bus1=67185525858543880MT.1.2.3 Bus2=67185658858537187MT.1.2.3 Linecode=16512384H-3 Length=66.943 units=m

New Line.13466631 Phases=3 Bus1=67186084858530327MT.1.2.3 Bus2=67186633858523682MT.1.2.3 Linecode=16512384H-3 Length=66.676 units=m

New Line.13466632 Phases=3 Bus1=67186454858517169MT.1.2.3 Bus2=67187397858510610MT.1.2.3 Linecode=16512384H-3 Length=66.264 units=m

New Line.13466633 Phases=3 Bus1=67187233858504388MT.1.2.3 Bus2=67187119858497979MT.1.2.3 Linecode=16512384H-3 Length=64.1 units=m

New Line.13466618 Phases=3 Bus1=67180873858647384MT.1.2.3 Bus2=67181229858641462MT.1.2.3 Linecode=16512384H-3 Length=59.327 units=m

New Line.13466619 Phases=3 Bus1=67720475858501919MT.1.2.3 Bus2=67716576858501197MT.1.2.3 Linecode=16512329H-3 Length=39.653 units=m

New Line.13466620 Phases=3 Bus1=67231833858004310MT.1.2.3 Bus2=67226428858000864MT.1.2.3 Linecode=16512329H-3 Length=65.599 units=m

New Line.13466621 Phases=3 Bus1=67161101858787399MT.1.2.3 Bus2=67161698858779920MT.1.2.3 Linecode=16512384H-3 Length=75.028 units=m

New Line.13466622 Phases=3 Bus1=67194430858182311MT.1.2.3 Bus2=67194332858175180MT.1.2.3 Linecode=16512384H-3 Length=71.317 units=m

New Line.13466623 Phases=3 Bus1=66786272859417337MT.1.2.3 Bus2=66792183859409891MT.1.2.3 Linecode=16512384H-3 Length=91.363 units=m

New Line.13466624 Phases=3 Bus1=66798062859403169MT.1.2.3 Bus2=66803850859396472MT.1.2.3 Linecode=16512384H-3 Length=88.516 units=m

New Line.13150631 Phases=3 Bus1=68218991858415711MT.1.2.3 Bus2=68229394858416181MT.1.2.3 Linecode=16512329H-3 Length=104.136 units=m

New Line.13150632 Phases=3 Bus1=68229394858416181MT.1.2.3 Bus2=68239684858416895MT.1.2.3 Linecode=16512329H-3 Length=103.147 units=m

New Line.13150633 Phases=3 Bus1=68239684858416895MT.1.2.3 Bus2=68250048858417638MT.1.2.3 Linecode=16512329H-3 Length=103.906 units=m

New Line.13150634 Phases=3 Bus1=68250048858417638MT.1.2.3 Bus2=68260278858417946MT.1.2.3 Linecode=16512329H-3 Length=102.346 units=m

New Line.13150635 Phases=3 Bus1=68260278858417946MT.1.2.3 Bus2=68270802858418790MT.1.2.3 Linecode=16512329H-3 Length=105.578 units=m

New Line.13150636 Phases=3 Bus1=68270802858418790MT.1.2.3 Bus2=68281072858419556MT.1.2.3 Linecode=16512329H-3 Length=102.985 units=m

New Line.17891785 Phases=3 Bus1=66474048859615310MT.1.2.3 Bus2=66469998859625252MT.1.2.3 Linecode=16512329H-3 Length=107.353 units=m

New Line.17891786 Phases=3 Bus1=66469998859625252MT.1.2.3 Bus2=66465751859635914MT.1.2.3 Linecode=16512329H-3 Length=114.767 units=m

New Line.17891787 Phases=3 Bus1=66465751859635914MT.1.2.3 Bus2=66461643859645450MT.1.2.3 Linecode=16512329H-3 Length=103.832 units=m

New Line.17891788 Phases=3 Bus1=66461643859645450MT.1.2.3 Bus2=66457429859655433MT.1.2.3 Linecode=16512329H-3 Length=108.36 units=m

New Line.17892088 Phases=3 Bus1=66443779859714252MT.1.2.3 Bus2=66438347859723614MT.1.2.3 Linecode=16512329H-1 Length=108.238 units=m

New Line.17892089 Phases=3 Bus1=66438347859723614MT.1.2.3 Bus2=66432698859732902MT.1.2.3 Linecode=16512329H-1 Length=108.71 units=m

New Line.17892090 Phases=3 Bus1=66432698859732902MT.1.2.3 Bus2=66427886859741000MT.1.2.3 Linecode=16512329H-1 Length=94.198 units=m

New Line.17892091 Phases=3 Bus1=66427886859741000MT.1.2.3 Bus2=66416976859734413MT.1.2.3 Linecode=16512329H-1 Length=125.016 units=m

New Line.17892092 Phases=3 Bus1=66416976859734413MT.1.2.3 Bus2=66406946859727348MT.1.2.3 Linecode=16512329H-1 Length=122.685 units=m

New Line.17892093 Phases=3 Bus1=66406946859727348MT.1.2.3 Bus2=66396834859720435MT.1.2.3 Linecode=16512329H-1 Length=122.492 units=m

New Line.17892094 Phases=3 Bus1=66396834859720435MT.1.2.3 Bus2=66386388859713900MT.1.2.3 Linecode=16512329H-1 Length=123.217 units=m

New Line.18094953 Phases=3 Bus1=67073072859432702MT.1.2.3 Bus2=67064279859428371MT.1.2.3 Linecode=16512329H-3 Length=99.52 units=m

New Line.18094952 Phases=3 Bus1=67074924859430136MT.1.2.3 Bus2=67073207859432768MT.1.2.3 Linecode=16512329H-3 Length=31.425 units=m

New Line.18097140 Phases=3 Bus1=66047076858951234MT.1.2.3 Bus2=66054231858936590MT.1.2.3 Linecode=16512384H-3 Length=162.985 units=m

New Line.18097141 Phases=3 Bus1=66039228858965690MT.1.2.3 Bus2=66047076858951234MT.1.2.3 Linecode=16512384H-3 Length=164.489 units=m

New Line.18097142 Phases=3 Bus1=66032224858980799MT.1.2.3 Bus2=66039228858965690MT.1.2.3 Linecode=16512384H-3 Length=166.535 units=m

New Line.18097143 Phases=3 Bus1=66039375858965720MT.1.2.3 Bus2=66045302858966921MT.1.2.3 Linecode=16512329H-1 Length=61.975 units=m

New Line.18097144 Phases=3 Bus1=66045302858966921MT.1.2.3 Bus2=66058492858969492MT.1.2.3 Linecode=16512329H-1 Length=130.735 units=m

New Line.53400046 Phases=3 Bus1=65579052859821581MT.1.2.3 Bus2=65580125859822164MT.1.2.3 Linecode=16512355M-3P Length=12.212 units=m

New Line.18154528 Phases=3 Bus1=66165143858606149MT.1.2.3 Bus2=66169681858589076MT.1.2.3 Linecode=16512384H-3 Length=178.16 units=m

New Line.18154529 Phases=3 Bus1=66164016858608959MT.1.2.3 Bus2=66165104858606294MT.1.2.3 Linecode=16512384H-3 Length=28.785 units=m

New Line.18154827 Phases=3 Bus1=67867665856694532MT.1.2.3 Bus2=67879043856695251MT.1.2.3 Linecode=16512329H-1 Length=114.007 units=m

New Line.13493711 Phases=3 Bus1=68281072858419556MT.1.2.3 Bus2=68291255858419965MT.1.2.3 Linecode=16512329H-3 Length=99.606 units=m

New Line.18163790 Phases=3 Bus1=66694371859464956MT.1.2.3 Bus2=66683932859457001MT.1.2.3 Linecode=16512329H-3 Length=131.246 units=m

New Line.18163791 Phases=3 Bus1=66683932859457001MT.1.2.3 Bus2=66673737859449190MT.1.2.3 Linecode=16512329H-3 Length=128.433 units=m

New Line.18163792 Phases=3 Bus1=66673737859449190MT.1.2.3 Bus2=66663289859441155MT.1.2.3 Linecode=16512329H-3 Length=131.804 units=m

New Line.18163793 Phases=3 Bus1=66663289859441155MT.1.2.3 Bus2=66653169859433242MT.1.2.3 Linecode=16512329H-3 Length=128.464 units=m

New Line.18163794 Phases=3 Bus1=66634423859419457MT.1.2.3 Bus2=66629308859413228MT.1.2.3 Linecode=16512329H-3 Length=76.885 units=m

New Line.18163795 Phases=3 Bus1=66629308859413228MT.1.2.3 Bus2=66618243859410028MT.1.2.3 Linecode=16512329H-3 Length=111.534 units=m

New Line.18163789 Phases=3 Bus1=66704427859472705MT.1.2.3 Bus2=66694371859464956MT.1.2.3 Linecode=16512329H-3 Length=126.953 units=m

New Line.13368217 Phases=3 Bus1=67250762857975260MT.1.2.3 Bus2=67254417857967275MT.1.2.3 Linecode=16512384H-3 Length=87.818 units=m

New Line.13368218 Phases=3 Bus1=67257917857958972MT.1.2.3 Bus2=67260961857950530MT.1.2.3 Linecode=16512384H-3 Length=85.99 units=m

New Line.13368219 Phases=3 Bus1=67267965857933816MT.1.2.3 Bus2=67271588857925463MT.1.2.3 Linecode=16512384H-3 Length=91.049 units=m

New Line.17888821 Phases=3 Bus1=65271627859634792MT.1.2.3 Bus2=65260029859628844MT.1.2.3 Linecode=16512332H-1 Length=130.343 units=m

New Line.17888822 Phases=3 Bus1=65260029859628844MT.1.2.3 Bus2=65248727859623467MT.1.2.3 Linecode=16512332H-1 Length=125.159 units=m

New Line.17888823 Phases=3 Bus1=65248727859623467MT.1.2.3 Bus2=65236954859617611MT.1.2.3 Linecode=16512332H-1 Length=131.49 units=m

New Line.17888824 Phases=3 Bus1=65236954859617611MT.1.2.3 Bus2=65224565859611281MT.1.2.3 Linecode=16512332H-1 Length=139.124 units=m

New Line.17888825 Phases=3 Bus1=65224565859611281MT.1.2.3 Bus2=65212714859605537MT.1.2.3 Linecode=16512332H-1 Length=131.697 units=m

New Line.17888826 Phases=3 Bus1=65212714859605537MT.1.2.3 Bus2=65201969859600083MT.1.2.3 Linecode=16512332H-1 Length=120.499 units=m

New Line.17892548 Phases=3 Bus1=65513719859854398MT.1.2.3 Bus2=65507172859842906MT.1.2.3 Linecode=16512329H-3 Length=132.261 units=m

New Line.17891081 Phases=3 Bus1=65511894859900469MT.1.2.3 Bus2=65521573859886951MT.1.2.3 Linecode=16512384H-3 Length=166.259 units=m

New Line.17891082 Phases=3 Bus1=65502032859915229MT.1.2.3 Bus2=65511894859900469MT.1.2.3 Linecode=16512384H-3 Length=177.515 units=m

New Line.17891083 Phases=3 Bus1=65492637859928683MT.1.2.3 Bus2=65502032859915229MT.1.2.3 Linecode=16512384H-3 Length=164.096 units=m

New Line.17891084 Phases=3 Bus1=65483143859941412MT.1.2.3 Bus2=65492637859928683MT.1.2.3 Linecode=16512384H-3 Length=158.797 units=m

New Line.13290196 Phases=3 Bus1=66447876859696676MT.1.2.3 Bus2=66449454859703456MT.1.2.3 Linecode=16512329H-3 Length=69.612 units=m

New Line.13290197 Phases=3 Bus1=66449454859703456MT.1.2.3 Bus2=66450195859704300MT.1.2.3 Linecode=16512329H-3 Length=11.231 units=m

New Line.17875158 Phases=3 Bus1=69474177857338664MT.1.2.3 Bus2=69485746857345902MT.1.2.3 Linecode=16512329H-1 Length=136.466 units=m

New Line.17875159 Phases=3 Bus1=69449540857324027MT.1.2.3 Bus2=69462508857331364MT.1.2.3 Linecode=16512329H-1 Length=148.997 units=m

New Line.17875160 Phases=3 Bus1=69437584857316458MT.1.2.3 Bus2=69449540857324027MT.1.2.3 Linecode=16512329H-1 Length=141.505 units=m

New Line.17875161 Phases=3 Bus1=69426173857309070MT.1.2.3 Bus2=69437584857316458MT.1.2.3 Linecode=16512329H-1 Length=135.939 units=m

New Line.17875162 Phases=3 Bus1=69414361857301536MT.1.2.3 Bus2=69426173857309070MT.1.2.3 Linecode=16512329H-1 Length=140.102 units=m

New Line.17875163 Phases=3 Bus1=69401972857294044MT.1.2.3 Bus2=69414361857301536MT.1.2.3 Linecode=16512329H-1 Length=144.782 units=m

New Line.17875164 Phases=3 Bus1=69389872857286494MT.1.2.3 Bus2=69401972857294044MT.1.2.3 Linecode=16512329H-1 Length=142.623 units=m

New Line.17875165 Phases=3 Bus1=69378660857279288MT.1.2.3 Bus2=69389872857286494MT.1.2.3 Linecode=16512329H-1 Length=133.28 units=m

New Line.17875166 Phases=3 Bus1=69367250857272047MT.1.2.3 Bus2=69378660857279288MT.1.2.3 Linecode=16512329H-1 Length=135.137 units=m

New Line.18091742 Phases=3 Bus1=67687070857065328MT.1.2.3 Bus2=67686824857052294MT.1.2.3 Linecode=45225708H-1 Length=128.534 units=m

New Line.17994604 Phases=3 Bus1=68453743856960211MT.1.2.3 Bus2=68442841856961004MT.1.2.3 Linecode=45225708H-1 Length=107.493 units=m

New Line.17978563 Phases=3 Bus1=65536987858720501MT.1.2.3 Bus2=65523815858715313MT.1.2.3 Linecode=16512329H-1 Length=141.569 units=m

New Line.17994921 Phases=3 Bus1=68440757856903596MT.1.2.3 Bus2=68443478856915995MT.1.2.3 Linecode=16512329H-1 Length=126.941 units=m

New Line.13484051 Phases=3 Bus1=65899790859533561MT.1.2.3 Bus2=65899306859534637MT.1.2.3 Linecode=16512329H-3P Length=11.798 units=m

New Line.13484052 Phases=3 Bus1=65901056859530735MT.1.2.3 Bus2=65899790859533561MT.1.2.3 Linecode=16512329H-3 Length=29.072 units=m

New Line.13484053 Phases=3 Bus1=65901539859529356MT.1.2.3 Bus2=65901056859530735MT.1.2.3 Linecode=16512329H-3 Length=16.117 units=m

New Line.13484054 Phases=3 Bus1=65893554859526195MT.1.2.3 Bus2=65901589859529214MT.1.2.3 Linecode=16512332H-3 Length=85.834 units=m

New Line.13484055 Phases=3 Bus1=65899226859534764MT.1.2.3 Bus2=65898825859535398MT.1.2.3 Linecode=16512329H-3P Length=9.003 units=m

New Line.13484056 Phases=3 Bus1=65917169859534734MT.1.2.3 Bus2=65925624859538596MT.1.2.3 Linecode=16512329H-3 Length=89.582 units=m

New Line.13484057 Phases=3 Bus1=65925624859538596MT.1.2.3 Bus2=65923397859542579MT.1.2.3 Linecode=16512329H-3 Length=43.837 units=m

New Line.13484058 Phases=3 Bus1=65923397859542579MT.1.2.3 Bus2=65923051859549141MT.1.2.3 Linecode=16512329H-3 Length=65.711 units=m

New Line.84854692 Phases=3 Bus1=67193017858114890MT.1.2.3 Bus2=67196695858114418MT.1.2.3 Linecode=16512380H-3 Length=34.141 units=m

New Line.84854701 Phases=3 Bus1=67196839858114469MT.1.2.3 Bus2=67203214858116748MT.1.2.3 Linecode=16512380H-3 Length=69.229 units=m

New Line.84854716 Phases=3 Bus1=67203214858116748MT.1.2.3 Bus2=67216072858121352MT.1.2.3 Linecode=16512380H-3 Length=136.574 units=m

New Line.84854723 Phases=3 Bus1=67216072858121352MT.1.2.3 Bus2=67224107858124315MT.1.2.3 Linecode=16512380H-3 Length=85.639 units=m

New Line.84854730 Phases=3 Bus1=67224107858124315MT.1.2.3 Bus2=67233807858127783MT.1.2.3 Linecode=16512380H-3 Length=103.013 units=m

New Line.84854737 Phases=3 Bus1=67233807858127783MT.1.2.3 Bus2=67248253858132824MT.1.2.3 Linecode=16512380H-3 Length=153.003 units=m

New Line.84854744 Phases=3 Bus1=67248253858132824MT.1.2.3 Bus2=67256317858135826MT.1.2.3 Linecode=16512380H-3 Length=83.047 units=m

New Line.53145980 Phases=3 Bus1=68357862858565199MT.1.2.3 Bus2=68358647858565701MT.1.2.3 Linecode=16512355M-3P Length=9.318 units=m

New Line.53218121 Phases=3 Bus1=66104504858844690MT.1.2.3 Bus2=66105857858845289MT.1.2.3 Linecode=16512355M-3P Length=14.797 units=m

New Line.53595929 Phases=3 Bus1=65898825859535398MT.1.2.3 Bus2=65898784859537325MT.1.2.3 Linecode=16512355M-3P Length=19.274 units=m

New Line.53289879 Phases=3 Bus1=67602457858133405MT.1.2.3 Bus2=67601942858133719MT.1.2.3 Linecode=16512355M-3P Length=6.032 units=m

New Line.13758712 Phases=3 Bus1=66103080859971156MT.1.2.3 Bus2=66091399859976640MT.1.2.3 Linecode=16512329H-1 Length=129.043 units=m

New Line.13758713 Phases=3 Bus1=66044021860000246MT.1.2.3 Bus2=66033526860005891MT.1.2.3 Linecode=16512329H-1 Length=116.35 units=m

New Line.13758714 Phases=3 Bus1=66412697859773944MT.1.2.3 Bus2=66406066859786005MT.1.2.3 Linecode=16512329H-1 Length=137.636 units=m

New Line.13758715 Phases=3 Bus1=66392591859809259MT.1.2.3 Bus2=66385609859820851MT.1.2.3 Linecode=16512329H-1 Length=135.323 units=m

New Line.13758716 Phases=3 Bus1=66361996859846211MT.1.2.3 Bus2=66349300859851949MT.1.2.3 Linecode=16512329H-1 Length=136.526 units=m

New Line.13758717 Phases=3 Bus1=66304028859874923MT.1.2.3 Bus2=66294020859878852MT.1.2.3 Linecode=16512329H-1 Length=107.516 units=m

New Line.13758718 Phases=3 Bus1=66235354859906601MT.1.2.3 Bus2=66222971859912689MT.1.2.3 Linecode=16512329H-1 Length=137.986 units=m

New Line.13758719 Phases=3 Bus1=66174712859936543MT.1.2.3 Bus2=66163687859942007MT.1.2.3 Linecode=16512329H-1 Length=123.047 units=m

New Line.13758720 Phases=3 Bus1=66115656859965003MT.1.2.3 Bus2=66103080859971156MT.1.2.3 Linecode=16512329H-1 Length=140.005 units=m

New Line.13759031 Phases=3 Bus1=66054889859994961MT.1.2.3 Bus2=66044021860000246MT.1.2.3 Linecode=16512329H-1 Length=120.849 units=m

New Line.13759032 Phases=3 Bus1=65999948860023100MT.1.2.3 Bus2=65990080860028051MT.1.2.3 Linecode=16512329H-1 Length=110.404 units=m

New Line.13758698 Phases=3 Bus1=66349300859851949MT.1.2.3 Bus2=66337479859858009MT.1.2.3 Linecode=16512329H-1 Length=132.838 units=m

New Line.13758699 Phases=3 Bus1=66283478859883075MT.1.2.3 Bus2=66272462859888318MT.1.2.3 Linecode=16512329H-1 Length=119.911 units=m

New Line.13758700 Phases=3 Bus1=66210467859918737MT.1.2.3 Bus2=66198478859924946MT.1.2.3 Linecode=16512329H-1 Length=135.014 units=m

New Line.13758701 Phases=3 Bus1=66127988859959070MT.1.2.3 Bus2=66115656859965003MT.1.2.3 Linecode=16512329H-1 Length=136.85 units=m

New Line.13758702 Phases=3 Bus1=66079043859982839MT.1.2.3 Bus2=66066826859988797MT.1.2.3 Linecode=16512329H-1 Length=135.924 units=m

New Line.13758703 Phases=3 Bus1=66033526860005891MT.1.2.3 Bus2=66021389860012426MT.1.2.3 Linecode=16512329H-1 Length=137.845 units=m

New Line.13758704 Phases=3 Bus1=66427886859741000MT.1.2.3 Bus2=66421518859751432MT.1.2.3 Linecode=16512329H-1 Length=118.229 units=m

New Line.13758705 Phases=3 Bus1=66419602859762365MT.1.2.3 Bus2=66412697859773944MT.1.2.3 Linecode=16512329H-1 Length=131.322 units=m

New Line.13758706 Phases=3 Bus1=66385609859820851MT.1.2.3 Bus2=66380425859829517MT.1.2.3 Linecode=16512329H-1 Length=100.982 units=m

New Line.13758707 Phases=3 Bus1=66337479859858009MT.1.2.3 Bus2=66325013859864498MT.1.2.3 Linecode=16512329H-1 Length=140.538 units=m

New Line.13758708 Phases=3 Bus1=66294020859878852MT.1.2.3 Bus2=66283478859883075MT.1.2.3 Linecode=16512329H-1 Length=113.564 units=m

New Line.13758709 Phases=3 Bus1=66247672859900625MT.1.2.3 Bus2=66235354859906601MT.1.2.3 Linecode=16512329H-1 Length=136.911 units=m

New Line.13758710 Phases=3 Bus1=66186030859930946MT.1.2.3 Bus2=66174712859936543MT.1.2.3 Linecode=16512329H-1 Length=126.263 units=m

New Line.13758711 Phases=3 Bus1=66163687859942007MT.1.2.3 Bus2=66152758859947014MT.1.2.3 Linecode=16512329H-1 Length=120.214 units=m

New Line.15112822 Phases=3 Bus1=65451816859742586MT.1.2.3 Bus2=65451920859742466MT.1.2.3 Linecode=16512329H-3 Length=1.588 units=m

New Line.15112823 Phases=3 Bus1=66723880859487991MT.1.2.3 Bus2=66723720859487991MT.1.2.3 Linecode=16512329H-3 Length=1.6 units=m

New Line.15112824 Phases=3 Bus1=67149345858867116MT.1.2.3 Bus2=67149439858867245MT.1.2.3 Linecode=16512329H-3 Length=1.596 units=m

New Line.15112825 Phases=3 Bus1=66971204859205358MT.1.2.3 Bus2=66971349859205426MT.1.2.3 Linecode=16512329H-3 Length=1.602 units=m

New Line.15112826 Phases=3 Bus1=66450195859704300MT.1.2.3 Bus2=66450153859704633MT.1.2.3 Linecode=16512329H-1 Length=1.6 units=m

New Line.15112827 Phases=3 Bus1=69121822857115487MT.1.2.3 Bus2=69121957857115572MT.1.2.3 Linecode=16512329H-1 Length=1.595 units=m

New Line.15112828 Phases=3 Bus1=66555867857485646MT.1.2.3 Bus2=66556059857485669MT.1.2.3 Linecode=16512329H-1 Length=1.597 units=m

New Line.15112830 Phases=3 Bus1=69322792857242602MT.1.2.3 Bus2=69322922857242696MT.1.2.3 Linecode=16512329H-1 Length=1.604 units=m

New Line.15112831 Phases=3 Bus1=66212457859485622MT.1.2.3 Bus2=66212476859485780MT.1.2.3 Linecode=16512329H-3 Length=1.591 units=m

New Line.15112832 Phases=3 Bus1=65960508859366503MT.1.2.3 Bus2=65960999859366648MT.1.2.3 Linecode=16512329H-3 Length=5.12 units=m

New Line.15112834 Phases=3 Bus1=64411587860700542MT.1.2.3 Bus2=64411434860700494MT.1.2.3 Linecode=16512329H-3 Length=1.604 units=m

New Line.15112835 Phases=3 Bus1=67624669856884643MT.1.2.3 Bus2=67624828856884646MT.1.2.3 Linecode=16512329H-1 Length=1.59 units=m

New Line.15112836 Phases=3 Bus1=66212336859488349MT.1.2.3 Bus2=66212328859488793MT.1.2.3 Linecode=16512329H-3P Length=5.961 units=m

New Line.15084411 Phases=3 Bus1=66918795856644104MT.1.2.3 Bus2=66918815856644077MT.1.2.3 Linecode=16512329H-3 Length=1.856 units=m

New Line.14884023 Phases=3 Bus1=68199267859203504MT.1.2.3 Bus2=68206075859213755MT.1.2.3 Linecode=16512329H-1 Length=123.058 units=m

New Line.14884024 Phases=3 Bus1=68206075859213755MT.1.2.3 Bus2=68212347859223736MT.1.2.3 Linecode=16512329H-1 Length=116.47 units=m

New Line.14884025 Phases=3 Bus1=68212347859223736MT.1.2.3 Bus2=68219468859234361MT.1.2.3 Linecode=16512329H-1 Length=127.906 units=m

New Line.14884026 Phases=3 Bus1=68219468859234361MT.1.2.3 Bus2=68226323859244501MT.1.2.3 Linecode=16512329H-1 Length=122.397 units=m

New Line.14884027 Phases=3 Bus1=68226323859244501MT.1.2.3 Bus2=68232798859254894MT.1.2.3 Linecode=16512329H-1 Length=122.45 units=m

New Line.14884028 Phases=3 Bus1=68232798859254894MT.1.2.3 Bus2=68239677859265496MT.1.2.3 Linecode=16512329H-1 Length=126.382 units=m

New Line.14884029 Phases=3 Bus1=68239677859265496MT.1.2.3 Bus2=68246014859275794MT.1.2.3 Linecode=16512329H-1 Length=120.916 units=m

New Line.14884030 Phases=3 Bus1=68246014859275794MT.1.2.3 Bus2=68252725859285072MT.1.2.3 Linecode=16512329H-1 Length=114.507 units=m

New Line.14884031 Phases=3 Bus1=68252725859285072MT.1.2.3 Bus2=68258420859296163MT.1.2.3 Linecode=16512329H-1 Length=123.45 units=m

New Line.14884032 Phases=3 Bus1=68258420859296163MT.1.2.3 Bus2=68264402859307481MT.1.2.3 Linecode=16512329H-1 Length=128.016 units=m

New Line.14884033 Phases=3 Bus1=68264402859307481MT.1.2.3 Bus2=68271238859317083MT.1.2.3 Linecode=16512329H-1 Length=116.632 units=m

New Line.14884034 Phases=3 Bus1=68271238859317083MT.1.2.3 Bus2=68277490859326616MT.1.2.3 Linecode=16512329H-1 Length=114.002 units=m

New Line.14884035 Phases=3 Bus1=68277490859326616MT.1.2.3 Bus2=68283721859336244MT.1.2.3 Linecode=16512329H-1 Length=114.684 units=m

New Line.14884036 Phases=3 Bus1=68283721859336244MT.1.2.3 Bus2=68290008859346170MT.1.2.3 Linecode=16512329H-1 Length=117.495 units=m

New Line.14884037 Phases=3 Bus1=68290008859346170MT.1.2.3 Bus2=68296279859355170MT.1.2.3 Linecode=16512329H-1 Length=109.693 units=m

New Line.14884038 Phases=3 Bus1=68296279859355170MT.1.2.3 Bus2=68302307859365375MT.1.2.3 Linecode=16512329H-1 Length=118.524 units=m

New Line.14884338 Phases=3 Bus1=69155562859355055MT.1.2.3 Bus2=69154282859359224MT.1.2.3 Linecode=16512329H-1 Length=43.611 units=m

New Line.14884339 Phases=3 Bus1=69155707859355094MT.1.2.3 Bus2=69163110859357107MT.1.2.3 Linecode=16512329H-1 Length=78.22 units=m

New Line.14884340 Phases=3 Bus1=69163110859357107MT.1.2.3 Bus2=69163635859355573MT.1.2.3 Linecode=16512329H-1 Length=15.03 units=m

New Line.14884341 Phases=3 Bus1=69163635859355573MT.1.2.3 Bus2=69164116859354378MT.1.2.3 Linecode=16512329H-1 Length=12.882 units=m

New Line.14884018 Phases=3 Bus1=68165567859152303MT.1.2.3 Bus2=68172405859162624MT.1.2.3 Linecode=16512329H-1 Length=122.486 units=m

New Line.14884019 Phases=3 Bus1=68172405859162624MT.1.2.3 Bus2=68179163859173039MT.1.2.3 Linecode=16512329H-1 Length=124.154 units=m

New Line.14884020 Phases=3 Bus1=68179163859173039MT.1.2.3 Bus2=68186079859183132MT.1.2.3 Linecode=16512329H-1 Length=122.352 units=m

New Line.14884021 Phases=3 Bus1=68186079859183132MT.1.2.3 Bus2=68192399859193119MT.1.2.3 Linecode=16512329H-1 Length=118.187 units=m

New Line.14884022 Phases=3 Bus1=68192399859193119MT.1.2.3 Bus2=68199267859203504MT.1.2.3 Linecode=16512329H-1 Length=124.506 units=m

New Line.17978662 Phases=3 Bus1=67602528858133684MT.1.2.3 Bus2=67605036858135383MT.1.2.3 Linecode=16512329H-3P Length=30.293 units=m

New Line.17978663 Phases=3 Bus1=67243782857991642MT.1.2.3 Bus2=67247286857983561MT.1.2.3 Linecode=16512384H-3 Length=88.08 units=m

New Line.17978664 Phases=3 Bus1=67247286857983561MT.1.2.3 Bus2=67250762857975260MT.1.2.3 Linecode=16512384H-3 Length=89.994 units=m

New Line.17978665 Phases=3 Bus1=67264596857941968MT.1.2.3 Bus2=67267965857933816MT.1.2.3 Linecode=16512384H-3 Length=88.207 units=m

New Line.17978666 Phases=3 Bus1=67797877856882436MT.1.2.3 Bus2=67798512856894339MT.1.2.3 Linecode=45225708H-1 Length=117.337 units=m

New Line.17993762 Phases=3 Bus1=67416356859762112MT.1.2.3 Bus2=67416942859775033MT.1.2.3 Linecode=16512329H-3 Length=129.343 units=m

New Line.17978572 Phases=3 Bus1=67395241857697395MT.1.2.3 Bus2=67407587857702235MT.1.2.3 Linecode=16512329H-3 Length=132.608 units=m

New Line.17994069 Phases=3 Bus1=67812080856882083MT.1.2.3 Bus2=67813405856878666MT.1.2.3 Linecode=45225708H-1 Length=34.791 units=m

New Line.18164724 Phases=3 Bus1=69122081857115656MT.1.2.3 Bus2=69140848857128447MT.1.2.3 Linecode=16512329H-1 Length=228.612 units=m

New Line.13099933 Phases=3 Bus1=64079912860924520MT.1.2.3 Bus2=64081869860926383MT.1.2.3 Linecode=16512375H-3 Length=23.3 units=m

New Line.13099934 Phases=3 Bus1=64214297860842538MT.1.2.3 Bus2=64218060860840302MT.1.2.3 Linecode=16512375H-3 Length=43.772 units=m

New Line.13099935 Phases=3 Bus1=64209122860846033MT.1.2.3 Bus2=64214297860842538MT.1.2.3 Linecode=16512375H-3 Length=62.446 units=m

New Line.13099936 Phases=3 Bus1=64204319860849349MT.1.2.3 Bus2=64209122860846033MT.1.2.3 Linecode=16512375H-3 Length=58.365 units=m

New Line.13099937 Phases=3 Bus1=64194253860855586MT.1.2.3 Bus2=64199054860852496MT.1.2.3 Linecode=16512375H-3 Length=57.094 units=m

New Line.18154828 Phases=3 Bus1=67879043856695251MT.1.2.3 Bus2=67893419856695160MT.1.2.3 Linecode=16512329H-1 Length=143.763 units=m

New Line.18154187 Phases=3 Bus1=67793808856693338MT.1.2.3 Bus2=67806421856693287MT.1.2.3 Linecode=16512329H-1 Length=126.131 units=m

New Line.18154188 Phases=3 Bus1=67806421856693287MT.1.2.3 Bus2=67818864856693520MT.1.2.3 Linecode=16512329H-1 Length=124.452 units=m

New Line.18154189 Phases=3 Bus1=67818864856693520MT.1.2.3 Bus2=67830624856693811MT.1.2.3 Linecode=16512329H-1 Length=117.636 units=m

New Line.18154190 Phases=3 Bus1=67830624856693811MT.1.2.3 Bus2=67843118856694044MT.1.2.3 Linecode=16512329H-1 Length=124.962 units=m

New Line.18154191 Phases=3 Bus1=67843118856694044MT.1.2.3 Bus2=67855270856694280MT.1.2.3 Linecode=16512329H-1 Length=121.543 units=m

New Line.18154192 Phases=3 Bus1=67855270856694280MT.1.2.3 Bus2=67867665856694532MT.1.2.3 Linecode=16512329H-1 Length=123.976 units=m

New Line.14310356 Phases=3 Bus1=66992541856833084MT.1.2.3 Bus2=67004836856835204MT.1.2.3 Linecode=16512329H-3 Length=124.764 units=m

New Line.14310357 Phases=3 Bus1=67300780856892007MT.1.2.3 Bus2=67312032856893973MT.1.2.3 Linecode=16512329H-3 Length=114.225 units=m

New Line.14310358 Phases=3 Bus1=67509141857069991MT.1.2.3 Bus2=67510656857074377MT.1.2.3 Linecode=16512329H-3 Length=42.828 units=m

New Line.14310359 Phases=3 Bus1=66849765856806224MT.1.2.3 Bus2=66861663856808465MT.1.2.3 Linecode=16512329H-3 Length=121.072 units=m

New Line.14310360 Phases=3 Bus1=67100563856853084MT.1.2.3 Bus2=67112538856855383MT.1.2.3 Linecode=16512329H-3 Length=118.351 units=m

New Line.14310361 Phases=3 Bus1=67378101856906643MT.1.2.3 Bus2=67377999856907269MT.1.2.3 Linecode=16512329H-3 Length=6.343 units=m

New Line.14310362 Phases=3 Bus1=67510656857074377MT.1.2.3 Bus2=67508169857074862MT.1.2.3 Linecode=16512329H-3 Length=21.909 units=m

New Line.14310363 Phases=3 Bus1=66817872856801036MT.1.2.3 Bus2=66825664856801658MT.1.2.3 Linecode=16512329H-3 Length=75.164 units=m

New Line.14310364 Phases=3 Bus1=66885285856812974MT.1.2.3 Bus2=66896348856815105MT.1.2.3 Linecode=16512329H-3 Length=112.664 units=m

New Line.14310365 Phases=3 Bus1=67256038856882630MT.1.2.3 Bus2=67266590856884486MT.1.2.3 Linecode=16512329H-3 Length=107.14 units=m

New Line.14310366 Phases=3 Bus1=67394757856916432MT.1.2.3 Bus2=67395079856915868MT.1.2.3 Linecode=16512329H-3 Length=4.426 units=m

New Line.17994595 Phases=3 Bus1=68465050857012619MT.1.2.3 Bus2=68456659857016087MT.1.2.3 Linecode=45225708H-1 Length=88.044 units=m

New Line.17994603 Phases=3 Bus1=66969138857855437MT.1.2.3 Bus2=66964616857846706MT.1.2.3 Linecode=16512329H-1 Length=98.325 units=m

New Line.17994889 Phases=3 Bus1=65623504859793822MT.1.2.3 Bus2=65636673859782374MT.1.2.3 Linecode=16512384H-3 Length=174.493 units=m

New Line.17994890 Phases=3 Bus1=65610099859805381MT.1.2.3 Bus2=65623504859793822MT.1.2.3 Linecode=16512384H-3 Length=177.004 units=m

New Line.17977725 Phases=3 Bus1=65557215859850178MT.1.2.3 Bus2=65570960859838811MT.1.2.3 Linecode=16512384H-3 Length=178.363 units=m

New Line.17977726 Phases=3 Bus1=65543864859862302MT.1.2.3 Bus2=65557215859850178MT.1.2.3 Linecode=16512384H-3 Length=180.344 units=m

New Line.17977727 Phases=3 Bus1=65804221859493717MT.1.2.3 Bus2=65815629859497840MT.1.2.3 Linecode=16512332H-3 Length=121.302 units=m

New Line.17977728 Phases=3 Bus1=65815629859497840MT.1.2.3 Bus2=65828326859502370MT.1.2.3 Linecode=16512332H-3 Length=134.809 units=m

New Line.17977729 Phases=3 Bus1=65828326859502370MT.1.2.3 Bus2=65841269859507293MT.1.2.3 Linecode=16512332H-3 Length=138.476 units=m

New Line.17977730 Phases=3 Bus1=65841269859507293MT.1.2.3 Bus2=65854497859512045MT.1.2.3 Linecode=16512332H-3 Length=140.557 units=m

New Line.17977731 Phases=3 Bus1=65854497859512045MT.1.2.3 Bus2=65867526859516809MT.1.2.3 Linecode=16512332H-3 Length=138.727 units=m

New Line.17977732 Phases=3 Bus1=65867526859516809MT.1.2.3 Bus2=65880569859521492MT.1.2.3 Linecode=16512332H-3 Length=138.582 units=m

New Line.18093250 Phases=3 Bus1=68024754856710126MT.1.2.3 Bus2=68025908856721001MT.1.2.3 Linecode=45225708H-1 Length=109.361 units=m

New Line.17993635 Phases=3 Bus1=66221958858392865MT.1.2.3 Bus2=66224727858383258MT.1.2.3 Linecode=16512384H-3 Length=99.981 units=m

New Line.17993636 Phases=3 Bus1=66125004858365256MT.1.2.3 Bus2=66122256858370347MT.1.2.3 Linecode=16512332H-3 Length=59.352 units=m

New Line.17994891 Phases=3 Bus1=65597409859816021MT.1.2.3 Bus2=65610099859805381MT.1.2.3 Linecode=16512384H-3 Length=165.604 units=m

New Line.17994892 Phases=3 Bus1=65584030859827702MT.1.2.3 Bus2=65597409859816021MT.1.2.3 Linecode=16512384H-3 Length=177.607 units=m

New Line.17994893 Phases=3 Bus1=65570960859838811MT.1.2.3 Bus2=65584030859827702MT.1.2.3 Linecode=16512384H-3 Length=171.533 units=m

New Line.17994895 Phases=3 Bus1=65809202859325811MT.1.2.3 Bus2=65796913859318443MT.1.2.3 Linecode=16512332H-3 Length=143.285 units=m

New Line.17994896 Phases=3 Bus1=65796913859318443MT.1.2.3 Bus2=65785045859311420MT.1.2.3 Linecode=16512332H-3 Length=137.903 units=m

New Line.17994888 Phases=3 Bus1=65636673859782374MT.1.2.3 Bus2=65650005859770907MT.1.2.3 Linecode=16512384H-3 Length=175.851 units=m

New Line.18092632 Phases=3 Bus1=66632457857133682MT.1.2.3 Bus2=66643680857138907MT.1.2.3 Linecode=16512329H-2 Length=123.797 units=m

New Line.18092633 Phases=3 Bus1=66643680857138907MT.1.2.3 Bus2=66652908857143622MT.1.2.3 Linecode=16512329H-2 Length=103.628 units=m

New Line.17977997 Phases=3 Bus1=68525748857396083MT.1.2.3 Bus2=68523232857409339MT.1.2.3 Linecode=16512329H-1 Length=134.927 units=m

New Line.17977998 Phases=3 Bus1=68523232857409339MT.1.2.3 Bus2=68519938857422803MT.1.2.3 Linecode=16512329H-1 Length=138.611 units=m

New Line.17977999 Phases=3 Bus1=68519938857422803MT.1.2.3 Bus2=68517424857436354MT.1.2.3 Linecode=16512329H-1 Length=137.822 units=m

New Line.17978003 Phases=3 Bus1=65686879859738210MT.1.2.3 Bus2=65686517859737638MT.1.2.3 Linecode=16512384H-3 Length=6.181 units=m

New Line.17978004 Phases=3 Bus1=65686879859738210MT.1.2.3 Bus2=65687522859738505MT.1.2.3 Linecode=16512384H-3 Length=7.074 units=m

New Line.17978005 Phases=3 Bus1=65858766859343896MT.1.2.3 Bus2=65846079859339413MT.1.2.3 Linecode=16512332H-3 Length=136.054 units=m

New Line.17978006 Phases=3 Bus1=65854641859353882MT.1.2.3 Bus2=65859057859344000MT.1.2.3 Linecode=16512384H-3 Length=108.238 units=m

New Line.17978007 Phases=3 Bus1=68046790856878930MT.1.2.3 Bus2=68046806856877049MT.1.2.3 Linecode=45225708H-1 Length=16.98 units=m

New Line.18153910 Phases=3 Bus1=66191484858506855MT.1.2.3 Bus2=66196081858491316MT.1.2.3 Linecode=16512384H-3 Length=162.047 units=m

New Line.18153911 Phases=3 Bus1=66187276858523890MT.1.2.3 Bus2=66188093858520581MT.1.2.3 Linecode=16512384H-3 Length=34.084 units=m

New Line.13239517 Phases=3 Bus1=66508584859291760MT.1.2.3 Bus2=66498343859289629MT.1.2.3 Linecode=16512329H-3P Length=104.604 units=m

New Line.13239518 Phases=3 Bus1=66498343859289629MT.1.2.3 Bus2=66489143859290526MT.1.2.3 Linecode=16512329H-3P Length=88.938 units=m

New Line.13239519 Phases=3 Bus1=66489143859290526MT.1.2.3 Bus2=66480336859291406MT.1.2.3 Linecode=16512329H-3P Length=88.509 units=m

New Line.13239520 Phases=3 Bus1=66480336859291406MT.1.2.3 Bus2=66469964859292495MT.1.2.3 Linecode=16512329H-3P Length=104.29 units=m

New Line.13239521 Phases=3 Bus1=66469964859292495MT.1.2.3 Bus2=66459260859293555MT.1.2.3 Linecode=16512329H-3P Length=107.564 units=m

New Line.13239522 Phases=3 Bus1=66459260859293555MT.1.2.3 Bus2=66448711859295018MT.1.2.3 Linecode=16512329H-3P Length=106.5 units=m

New Line.13239523 Phases=3 Bus1=66448711859295018MT.1.2.3 Bus2=66444656859295509MT.1.2.3 Linecode=16512329H-3P Length=37.614 units=m

New Line.13239524 Phases=3 Bus1=66571866859614590MT.1.2.3 Bus2=66577086859618120MT.1.2.3 Linecode=16512384H-3 Length=63.015 units=m

New Line.13239525 Phases=3 Bus1=66577086859618120MT.1.2.3 Bus2=66583078859621863MT.1.2.3 Linecode=16512384H-3 Length=70.65 units=m

New Line.13239526 Phases=3 Bus1=66560421859607522MT.1.2.3 Bus2=66565815859610889MT.1.2.3 Linecode=16512384H-3 Length=63.586 units=m

New Line.13239527 Phases=3 Bus1=66565815859610889MT.1.2.3 Bus2=66571866859614590MT.1.2.3 Linecode=16512384H-3 Length=70.931 units=m

New Line.13239516 Phases=3 Bus1=66519022859293759MT.1.2.3 Bus2=66508584859291760MT.1.2.3 Linecode=16512329H-3P Length=106.277 units=m

New Line.13240474 Phases=3 Bus1=66373095859487038MT.1.2.3 Bus2=66378710859490826MT.1.2.3 Linecode=16512384H-3 Length=67.733 units=m

New Line.13239507 Phases=3 Bus1=66599983859311276MT.1.2.3 Bus2=66605411859300316MT.1.2.3 Linecode=16512329H-3P Length=118.476 units=m

New Line.13239508 Phases=3 Bus1=66599983859311276MT.1.2.3 Bus2=66590013859309227MT.1.2.3 Linecode=16512329H-3P Length=98.161 units=m

New Line.13239509 Phases=3 Bus1=66590013859309227MT.1.2.3 Bus2=66579741859306765MT.1.2.3 Linecode=16512329H-3P Length=105.629 units=m

New Line.13239510 Phases=3 Bus1=66579741859306765MT.1.2.3 Bus2=66569683859304459MT.1.2.3 Linecode=16512329H-3P Length=103.19 units=m

New Line.13239511 Phases=3 Bus1=66569683859304459MT.1.2.3 Bus2=66559508859302586MT.1.2.3 Linecode=16512329H-3P Length=103.46 units=m

New Line.13239512 Phases=3 Bus1=66559508859302586MT.1.2.3 Bus2=66550276859300677MT.1.2.3 Linecode=16512329H-3P Length=94.273 units=m

New Line.13239513 Phases=3 Bus1=66550276859300677MT.1.2.3 Bus2=66539449859298203MT.1.2.3 Linecode=16512329H-3P Length=111.061 units=m

...